*KEYWORD_ID
DED
*PARAMETER
Rboltz    5.6704E-14
*PARAMETER
Rambient       300.0
*PARAMETER
Rabszero         0.0
*TOOL_FILE
toolpath.crs
*GAUSS_LASER
400 1.12 0.4
*SCALAR_OUT
temp
solid_rate
theta_hist
nid_true
*CONTROL_TERMINATION
$$  ENDTIM    ENDCYC     DTMIN    ENDENG    ENDMAS
   285
*CONTROL_TIMESTEP
$$  DTINIT    TSSFAC      ISDO    TSLIMT     DT2MS      LCTM     EROD       E     MSIST
    2.0E-3       1.0
*CONTROL_SOLUTION
$$    SOLN
         0
*DATABASE_NODOUT
$$      DT    BINARY      LCUR      IOPT      DTHF     BINHF
    10.000         0
*MAT_THERMAL_ISOTROPIC_TD
$HMNAME MATS       1MATT1_1
         1   0.00798 1648.15  1673.15   290
./materials/316L_cp.txt
./materials/316L_cond.txt
*MAT_THERMAL_ISOTROPIC_TD
$HMNAME MATS       2MATT1_2
         2   0.00787  1693  1733   270
./materials/1018_cp.txt
./materials/1018_cond.txt
*PART
$HWCOLOR COMPS       1       3
Substrate
         1         0         1
$HWCOLOR COMPS       2       4
Build
         2         0         2
*LOAD_NODE_SET
$HMNAME LOADCOLS       1LoadNode_1
         3         1               300.0
$	 moving flux
         2         5                 0.0
$	 Radiation
         2         4                 0.2
$	 convection
         2         3             0.00005
*INITIAL_TEMPERATURE_SET
$HMNAME LOADCOLS       1InitialTemp_1
$HWCOLOR LOADCOLS       1       3
         1     300.0
*DEFINE_CURVE
         1                 1.0       1.0
          0.01785714       2798.00000000
          0.01785714       2789.00000000
          0.01785714       2791.00000000
          0.01785714       2796.00000000
          0.03571429       2792.00000000
          0.03571429       2795.00000000
          0.03571429       2788.00000000
          0.03571429       2799.00000000
          0.05357143       3350.00000000
          0.05357143       2227.00000000
          0.05357143       2233.00000000
          0.05357143       2234.00000000
          0.05357143       2240.00000000
          0.05357143       3357.00000000
          0.07142857       3358.00000000
          0.07142857       3351.00000000
          0.07142857       3349.00000000
          0.07142857       3356.00000000
          0.08928571       3352.00000000
$ ... 12734 like lines cut